Version 4
SHEET 1 2044 2052
WIRE 368 496 16 496
WIRE 368 544 368 496
WIRE 672 544 368 544
WIRE 16 560 16 496
WIRE 16 560 -112 560
WIRE 96 560 16 560
WIRE -112 576 -112 560
WIRE 288 576 160 576
WIRE 16 592 16 560
WIRE 16 592 -80 592
WIRE 96 592 16 592
WIRE 368 608 368 544
WIRE 368 608 352 608
WIRE -160 640 -160 624
WIRE -80 640 -80 592
WIRE -80 640 -160 640
WIRE 288 688 288 576
WIRE 368 800 368 608
WIRE 368 800 352 800
WIRE 128 816 128 784
WIRE 672 832 672 544
WIRE 16 944 16 592
WIRE 128 944 128 896
WIRE 128 944 16 944
WIRE 288 944 288 768
WIRE 368 944 368 800
WIRE 368 944 288 944
WIRE 672 944 672 912
WIRE 672 944 368 944
WIRE 16 976 16 944
WIRE 368 976 368 944
WIRE 368 976 16 976
WIRE 672 1008 672 944
WIRE 656 1040 608 1040
WIRE 608 1184 608 1040
FLAG 128 784 VREF
FLAG -112 576 0
FLAG -160 624 5V
FLAG 608 1184 0
SYMBOL current 128 816 R0
WINDOW 0 24 0 Invisible 2
SYMATTR InstName I1
SYMATTR Value 50µ
SYMBOL res 304 784 R180
WINDOW 0 36 76 Invisible 2
WINDOW 3 51 62 Left 2
SYMATTR InstName R1
SYMATTR Value 100
SYMBOL Opamps\\opamp 128 512 R0
WINDOW 0 0 32 Invisible 2
SYMATTR InstName U1
SYMBOL res2 656 1008 R0
WINDOW 0 42 31 Left 2
WINDOW 3 36 56 Invisible 2
SYMATTR InstName VR
SYMATTR Value ""
SYMBOL res 656 816 R0
WINDOW 0 36 40 Invisible 2
WINDOW 3 39 56 Left 2
SYMATTR InstName R3
SYMATTR Value 1k
TEXT -48 544 Left 2 ;Inv 1
TEXT -64 616 Left 2 ;Ninv 2
TEXT 392 920 Left 2 ;9 Compensation
TEXT 384 800 Left 2 ;11 Output A
TEXT 384 608 Left 2 ;14 Output B
TEXT 144 472 Left 2 ;SG3525
TEXT 384 520 Left 2 ;16 VREF 5.1V
