Version 4
SHEET 1 1924 1460
WIRE 1280 64 1232 64
WIRE -16 96 -16 48
WIRE 128 96 128 32
WIRE 1008 96 944 96
WIRE 816 112 736 112
WIRE 944 128 944 96
WIRE 944 128 880 128
WIRE 1280 128 1232 128
WIRE -16 208 -16 176
WIRE 128 208 128 176
WIRE 1312 368 1280 368
WIRE 1472 368 1376 368
WIRE 400 384 400 336
WIRE 368 400 256 400
WIRE 1312 400 1120 400
WIRE 544 416 432 416
WIRE 368 432 336 432
WIRE 400 480 400 448
WIRE 1312 496 1280 496
WIRE 1472 496 1376 496
WIRE 544 512 544 416
WIRE 592 512 544 512
WIRE 1312 528 1120 528
WIRE 592 544 544 544
WIRE 720 544 656 544
WIRE 352 576 288 576
WIRE 352 624 352 576
WIRE 400 624 400 576
WIRE 400 624 352 624
WIRE 400 656 400 624
WIRE 288 672 288 656
WIRE 288 672 224 672
WIRE 368 672 288 672
WIRE 544 688 544 544
WIRE 544 688 432 688
WIRE 368 704 336 704
WIRE 400 752 400 720
WIRE 144 1056 48 1056
WIRE 48 1120 48 1056
WIRE -176 1136 -176 1072
WIRE -176 1248 -176 1200
WIRE 48 1248 48 1200
FLAG 128 208 0
FLAG -16 208 0
FLAG 48 1248 0
FLAG 128 32 OSC
IOPIN 128 32 Out
FLAG -16 48 VCC
IOPIN -16 48 Out
FLAG 400 336 VCC
IOPIN 400 336 In
FLAG 400 480 0
FLAG 336 432 OSC
IOPIN 336 432 In
FLAG 736 112 OSC
IOPIN 736 112 In
FLAG 1280 128 PHI2
IOPIN 1280 128 Out
FLAG 1280 368 PHI2
IOPIN 1280 368 In
FLAG 1120 400 PWM_OUT
IOPIN 1120 400 In
FLAG 1472 368 11.OUTPUT_A
IOPIN 1472 368 Out
FLAG 1280 64 PHI1
IOPIN 1280 64 Out
FLAG 1280 496 PHI1
IOPIN 1280 496 In
FLAG 1120 528 PWM_OUT
IOPIN 1120 528 In
FLAG 1472 496 14.OUTPUT_B
IOPIN 1472 496 Out
FLAG 256 400 9.COMPENSATION
IOPIN 256 400 In
FLAG 144 1056 9.COMPENSATION
IOPIN 144 1056 Out
FLAG -176 1248 0
FLAG 400 752 0
FLAG 400 576 VCC
IOPIN 400 576 In
FLAG 336 704 OSC
IOPIN 336 704 In
FLAG 224 672 8.SOFT-START
IOPIN 224 672 In
FLAG 720 544 PWM_OUT
IOPIN 720 544 Out
FLAG -176 1072 8.SOFT-START
IOPIN -176 1072 Out
SYMBOL voltage 128 80 R0
WINDOW 123 0 0 Left 0
WINDOW 39 0 0 Left 0
SYMATTR InstName V1
SYMATTR Value PULSE(0.9 3.2 0 1.6e-5 0 0 0 10000)
SYMBOL voltage -16 80 R0
WINDOW 123 0 0 Left 0
WINDOW 39 0 0 Left 0
SYMATTR InstName V2
SYMATTR Value 13
SYMBOL voltage 48 1104 R0
WINDOW 123 0 0 Left 0
WINDOW 39 0 0 Left 0
SYMATTR InstName V3
SYMATTR Value 5
SYMBOL Comparators\\LT1716 400 416 R0
SYMATTR InstName U2
SYMBOL Digital\\buf 816 48 R0
SYMATTR InstName A7
SYMATTR Value2 Vhigh=5 Vlow=0 Ref=2.05
SYMBOL Digital\\counter 1088 64 R0
WINDOW 3 -64 -52 Left 2
SYMATTR Value cycles=2
SYMATTR InstName A4
SYMATTR Value2 Vhigh=5 Vlow=0
SYMBOL Digital\\and 1344 320 R0
SYMATTR InstName A2
SYMATTR Value2 Vhigh=5 Vlow=0
SYMBOL Digital\\and 1344 448 R0
SYMATTR InstName A5
SYMATTR Value2 Vhigh=5 Vlow=0
SYMBOL cap -192 1136 R0
SYMATTR InstName C1
SYMATTR Value 10n
SYMBOL Comparators\\LT1716 400 688 R0
SYMATTR InstName U1
SYMBOL Digital\\or 624 464 R0
SYMATTR InstName A6
SYMATTR Value2 Vhigh=5 Vlow=0
SYMBOL current 288 576 R0
WINDOW 123 0 0 Left 0
WINDOW 39 0 0 Left 0
SYMATTR InstName I1
SYMATTR Value 50µ
TEXT 96 232 Left 2 !.tran 0 1e-3 0 startup
