Version 4
SHEET 1 2044 1460
WIRE 1280 64 1232 64
WIRE -144 96 -144 48
WIRE -16 96 -16 48
WIRE 128 96 128 32
WIRE 944 96 944 32
WIRE 1008 96 944 96
WIRE 816 112 736 112
WIRE 944 128 944 96
WIRE 944 128 880 128
WIRE 1280 128 1232 128
WIRE -144 208 -144 176
WIRE -16 208 -16 176
WIRE 128 208 128 176
WIRE 1440 304 1440 272
WIRE 1184 336 1136 336
WIRE 1296 352 1248 352
WIRE 1376 352 1328 352
WIRE 400 384 400 336
WIRE 1328 384 1328 352
WIRE 1328 384 1248 384
WIRE 368 400 256 400
WIRE 1184 400 1136 400
WIRE 544 416 432 416
WIRE 1440 416 1440 400
WIRE 1568 416 1440 416
WIRE 368 432 336 432
WIRE 1440 432 1440 416
WIRE 400 480 400 448
WIRE 1296 480 1296 352
WIRE 1376 480 1296 480
WIRE 544 512 544 416
WIRE 592 512 544 512
WIRE 688 512 656 512
WIRE 592 544 544 544
WIRE 688 544 688 512
WIRE 720 544 688 544
WIRE 1440 560 1440 528
WIRE 288 576 288 560
WIRE 400 656 400 608
WIRE 288 672 288 656
WIRE 288 672 224 672
WIRE 368 672 288 672
WIRE 544 688 544 544
WIRE 544 688 432 688
WIRE 368 704 336 704
WIRE 1440 720 1440 704
WIRE 400 752 400 720
WIRE 1184 752 1136 752
WIRE 1296 768 1248 768
WIRE 1376 768 1328 768
WIRE 1328 800 1328 768
WIRE 1328 800 1248 800
WIRE 1184 816 1136 816
WIRE 1440 832 1440 816
WIRE 1568 832 1440 832
WIRE 1440 848 1440 832
WIRE 1296 896 1296 768
WIRE 1376 896 1296 896
WIRE 1440 976 1440 944
WIRE 144 1056 48 1056
WIRE 48 1120 48 1056
WIRE -176 1136 -176 1072
WIRE -176 1248 -176 1200
WIRE 48 1248 48 1200
FLAG 128 208 0
FLAG -16 208 0
FLAG 48 1248 0
FLAG 128 32 OSC
IOPIN 128 32 Out
FLAG -16 48 VCC
IOPIN -16 48 Out
FLAG 400 480 0
FLAG 336 432 OSC
IOPIN 336 432 In
FLAG 736 112 OSC
IOPIN 736 112 In
FLAG 1280 128 PHI2
IOPIN 1280 128 Out
FLAG 1568 416 11.OUTPUT_A
IOPIN 1568 416 Out
FLAG 1280 64 PHI1
IOPIN 1280 64 Out
FLAG 256 400 9.COMPENSATION
IOPIN 256 400 In
FLAG 144 1056 9.COMPENSATION
IOPIN 144 1056 Out
FLAG -176 1248 0
FLAG 400 752 0
FLAG 336 704 OSC
IOPIN 336 704 In
FLAG 224 672 8.SOFT-START
IOPIN 224 672 In
FLAG 720 544 PWM_OUT
IOPIN 720 544 Out
FLAG -176 1072 8.SOFT-START
IOPIN -176 1072 Out
FLAG 1136 752 PHI2
IOPIN 1136 752 In
FLAG 944 32 OSC_OUT
IOPIN 944 32 Out
FLAG 1136 816 PWM_OUT
IOPIN 1136 816 In
FLAG 1440 976 0
FLAG 1440 704 VCC
IOPIN 1440 704 In
FLAG -144 208 0
FLAG -144 48 VREF
IOPIN -144 48 Out
FLAG 288 560 VREF
IOPIN 288 560 In
FLAG 400 608 VREF
IOPIN 400 608 In
FLAG 400 336 VREF
IOPIN 400 336 In
FLAG 1136 784 OSC_OUT
IOPIN 1136 784 In
FLAG 1440 560 0
FLAG 1440 272 VCC
IOPIN 1440 272 In
FLAG 1136 336 PHI1
IOPIN 1136 336 In
FLAG 1136 400 PWM_OUT
IOPIN 1136 400 In
FLAG 1136 368 OSC_OUT
IOPIN 1136 368 In
FLAG 1568 832 14.OUTPUT_B
IOPIN 1568 832 Out
SYMBOL voltage 128 80 R0
WINDOW 123 0 0 Left 0
WINDOW 39 0 0 Left 0
SYMATTR InstName V1
SYMATTR Value PULSE(0.9 3.2 0 1.6e-5 0 0 0 10000)
SYMBOL voltage -16 80 R0
WINDOW 123 0 0 Left 0
WINDOW 39 0 0 Left 0
SYMATTR InstName V2
SYMATTR Value 13
SYMBOL voltage 48 1104 R0
WINDOW 123 0 0 Left 0
WINDOW 39 0 0 Left 0
SYMATTR InstName V3
SYMATTR Value 5
SYMBOL Comparators\\LT1716 400 416 R0
SYMATTR InstName U2
SYMBOL Digital\\buf 816 48 R0
SYMATTR InstName A7
SYMATTR Value2 Vhigh=5 Vlow=0 Ref=2.05
SYMBOL Digital\\counter 1088 64 R0
WINDOW 3 -64 -52 Left 2
SYMATTR Value cycles=2
SYMATTR InstName A4
SYMATTR Value2 Vhigh=5 Vlow=0
SYMBOL cap -192 1136 R0
SYMATTR InstName C1
SYMATTR Value 10n
SYMBOL Comparators\\LT1716 400 688 R0
SYMATTR InstName U1
SYMBOL Digital\\or 624 464 R0
SYMATTR InstName A6
SYMATTR Value2 Vhigh=5 Vlow=0
SYMBOL current 288 576 R0
WINDOW 123 0 0 Left 0
WINDOW 39 0 0 Left 0
SYMATTR InstName I1
SYMATTR Value 50µ
SYMBOL Digital\\or 1216 720 R0
SYMATTR InstName A1
SYMATTR Value2 Vhigh=5 Vlow=0
SYMBOL npn 1376 720 R0
SYMATTR InstName Q1
SYMATTR Value 2N2222
SYMBOL npn 1376 848 R0
SYMATTR InstName Q2
SYMATTR Value 2N2222
SYMBOL voltage -144 80 R0
WINDOW 123 0 0 Left 0
WINDOW 39 0 0 Left 0
SYMATTR InstName V4
SYMATTR Value 5.1
SYMBOL Digital\\or 1216 304 R0
SYMATTR InstName A2
SYMATTR Value2 Vhigh=5 Vlow=0
SYMBOL npn 1376 304 R0
SYMATTR InstName Q3
SYMATTR Value 2N2222
SYMBOL npn 1376 432 R0
SYMATTR InstName Q4
SYMATTR Value 2N2222
TEXT 96 232 Left 2 !.tran 0 1e-3 0 startup
