Version 4
SHEET 1 880 680
WIRE -416 -1456 -416 -1488
WIRE -416 -1328 -416 -1376
WIRE -880 -1120 -880 -1200
WIRE -880 -1120 -1008 -1120
WIRE -752 -1120 -880 -1120
WIRE -1008 -1024 -1008 -1120
WIRE -1008 -880 -1008 -944
WIRE -752 -832 -752 -1120
WIRE 176 -816 64 -816
WIRE -1200 -768 -1296 -768
WIRE -1056 -768 -1136 -768
WIRE -1008 -768 -1008 -816
WIRE -1008 -768 -1056 -768
WIRE -928 -768 -1008 -768
WIRE 64 -768 64 -816
WIRE 176 -768 176 -816
WIRE -1056 -736 -1056 -768
WIRE -928 -736 -928 -768
WIRE -400 -656 -560 -656
WIRE -224 -656 -400 -656
WIRE 64 -656 64 -688
WIRE 64 -656 16 -656
WIRE 176 -624 176 -688
WIRE -1056 -608 -1056 -656
WIRE -992 -608 -1056 -608
WIRE -928 -608 -928 -672
WIRE -928 -608 -992 -608
WIRE -752 -608 -752 -752
WIRE -624 -608 -752 -608
WIRE -1296 -528 -1296 -768
WIRE -752 -512 -752 -608
WIRE -400 -496 -400 -656
WIRE -1344 -464 -1456 -464
WIRE -992 -464 -992 -608
WIRE -816 -464 -992 -464
WIRE -992 -384 -992 -464
WIRE -400 -368 -400 -416
WIRE -1296 -240 -1296 -464
WIRE -992 -224 -992 -304
WIRE -752 -224 -752 -416
WIRE -560 -224 -560 -560
WIRE -400 -224 -400 -304
WIRE -176 80 -464 80
WIRE -48 80 -112 80
WIRE 80 80 32 80
WIRE -176 112 -176 80
WIRE -112 112 -112 80
WIRE 80 144 80 80
WIRE -560 160 -592 160
WIRE -464 160 -464 80
WIRE -464 160 -496 160
WIRE -432 160 -464 160
WIRE -320 160 -368 160
WIRE -1456 192 -1456 -464
WIRE -1184 192 -1456 192
WIRE -1104 192 -1184 192
WIRE -976 192 -1040 192
WIRE -928 192 -976 192
WIRE -800 192 -848 192
WIRE -688 192 -800 192
WIRE -592 192 -592 160
WIRE -592 192 -688 192
WIRE -800 224 -800 192
WIRE -688 224 -688 192
WIRE -1184 240 -1184 192
WIRE -976 240 -976 192
WIRE -592 240 -592 192
WIRE -560 240 -592 240
WIRE -464 240 -496 240
WIRE -432 240 -464 240
WIRE -320 240 -320 160
WIRE -320 240 -368 240
WIRE -112 256 -112 192
WIRE 80 256 80 224
WIRE -320 272 -320 240
WIRE -464 320 -464 240
WIRE -176 320 -176 192
WIRE -176 320 -464 320
WIRE -1184 352 -1184 320
WIRE -976 352 -976 304
WIRE -800 352 -800 304
WIRE -688 352 -688 304
FLAG 80 256 0
FLAG -112 256 0
FLAG -688 352 0
FLAG -320 272 0
FLAG -800 352 0
FLAG -976 352 0
FLAG -1184 352 0
FLAG -400 -224 0
FLAG -752 -224 0
FLAG -560 -224 0
FLAG -992 -224 0
FLAG 176 -624 0
FLAG -224 -656 pin8
IOPIN -224 -656 Out
FLAG 16 -656 pin8
IOPIN 16 -656 In
FLAG -416 -1328 0
FLAG -416 -1488 VCC
IOPIN -416 -1488 Out
FLAG -880 -1200 VCC
IOPIN -880 -1200 In
FLAG -1296 -240 0
SYMBOL voltage 80 128 R0
WINDOW 123 0 0 Left 0
WINDOW 39 24 124 Left 2
SYMATTR SpiceLine Rser=0.001
SYMATTR InstName V1
SYMATTR Value PULSE(0 325 0 0 0 8.333e-6 1.667e-5 100)
SYMBOL ind2 -128 96 R0
WINDOW 0 47 27 Left 2
WINDOW 3 49 85 Left 2
SYMATTR InstName L1
SYMATTR Value 1µ
SYMATTR Type ind
SYMBOL ind2 -192 96 R0
WINDOW 0 -31 32 Left 2
WINDOW 3 -41 88 Left 2
SYMATTR InstName L2
SYMATTR Value 90000µ
SYMATTR Type ind
SYMBOL res -704 208 R0
SYMATTR InstName R33
SYMATTR Value 33
SYMBOL res 48 64 R90
WINDOW 0 0 56 VBottom 2
WINDOW 3 32 56 VTop 2
SYMATTR InstName R2
SYMATTR Value 1
SYMBOL diode -368 144 R90
WINDOW 0 0 32 VBottom 2
WINDOW 3 32 32 VTop 2
SYMATTR InstName D9
SYMATTR Value 1N4148
SYMBOL diode -368 224 R90
WINDOW 0 0 32 VBottom 2
WINDOW 3 32 32 VTop 2
SYMATTR InstName D10
SYMATTR Value 1N4148
SYMBOL diode -496 144 R90
WINDOW 0 0 32 VBottom 2
WINDOW 3 32 32 VTop 2
SYMATTR InstName D11
SYMATTR Value 1N4148
SYMBOL diode -496 224 R90
WINDOW 0 0 32 VBottom 2
WINDOW 3 32 32 VTop 2
SYMATTR InstName D12
SYMATTR Value 1N4148
SYMBOL res -816 208 R0
SYMATTR InstName R32
SYMATTR Value 20
SYMBOL res -832 176 R90
WINDOW 0 0 56 VBottom 2
WINDOW 3 32 56 VTop 2
SYMATTR InstName R34
SYMATTR Value 100
SYMBOL cap -992 240 R0
SYMATTR InstName C1
SYMATTR Value 500n
SYMBOL zener -1104 208 R270
WINDOW 0 36 32 VTop 2
WINDOW 3 -4 32 VBottom 2
SYMATTR InstName Z5
SYMATTR Value 1N750
SYMBOL res -1200 224 R0
SYMATTR InstName R45
SYMATTR Value 1k
SYMBOL res -1024 -1040 R0
SYMATTR InstName R42
SYMATTR Value 2k
SYMBOL res -1072 -752 R0
SYMATTR InstName R44
SYMATTR Value 6.2k
SYMBOL res -1008 -400 R0
SYMATTR InstName R43
SYMATTR Value 680
SYMBOL res -768 -848 R0
SYMATTR InstName R41
SYMATTR Value 22k
SYMBOL res -416 -512 R0
SYMATTR InstName R40
SYMATTR Value 100
SYMBOL zener -992 -816 R180
WINDOW 0 24 64 Left 2
WINDOW 3 24 0 Left 2
SYMATTR InstName Z6
SYMATTR Value 1N750
SYMBOL cap -944 -736 R0
SYMATTR InstName C34
SYMATTR Value 2.2n
SYMBOL npn -816 -512 R0
SYMATTR InstName Q4
SYMATTR Value BC547B
SYMBOL npn -624 -656 R0
SYMATTR InstName Q3
SYMATTR Value BC547B
SYMBOL cap -416 -368 R0
SYMATTR InstName C32
SYMATTR Value 0.68µ
SYMBOL current 64 -768 R0
WINDOW 123 0 0 Left 0
WINDOW 39 0 0 Left 0
SYMATTR InstName I1
SYMATTR Value 50µ
SYMBOL voltage 176 -784 R0
WINDOW 123 0 0 Left 0
WINDOW 39 0 0 Left 0
SYMATTR InstName V2
SYMATTR Value 5.1
SYMBOL voltage -416 -1472 R0
WINDOW 123 0 0 Left 0
WINDOW 39 0 0 Left 0
SYMATTR InstName V3
SYMATTR Value 15.8
SYMBOL diode -1136 -784 R90
WINDOW 0 0 32 VBottom 2
WINDOW 3 32 32 VTop 2
SYMATTR InstName D1
SYMATTR Value 1N4148
SYMBOL Misc\\SCR -1312 -528 R0
SYMATTR InstName U1
SYMATTR Value MCR100-6
TEXT -208 56 Left 2 !K L1 L2 0.99
TEXT 48 280 Left 2 !.tran 500u
TEXT -1280 -432 Left 2 !.inc MCR100-6.sub
