Version 4
SHEET 1 1000 680
WIRE 512 -144 48 -144
WIRE 720 -144 512 -144
WIRE 512 -96 512 -144
WIRE 720 -16 720 -144
WIRE 512 0 512 -16
WIRE 544 0 512 0
WIRE 672 0 544 0
WIRE 512 32 512 0
WIRE 48 80 48 -144
WIRE 160 80 48 80
WIRE 272 80 240 80
WIRE 400 80 272 80
WIRE 448 80 400 80
WIRE 272 112 272 80
WIRE 720 112 720 80
WIRE 48 128 48 80
WIRE 400 128 400 80
WIRE 272 144 272 112
WIRE 720 144 720 112
WIRE 48 272 48 208
WIRE 272 272 272 208
WIRE 400 272 400 208
WIRE 512 272 512 128
WIRE 720 272 720 224
FLAG 48 272 0
FLAG 272 272 0
FLAG 720 272 0
FLAG 512 272 0
FLAG 720 112 mosfet-out
FLAG 544 0 npn-out
FLAG 272 112 capacitor
FLAG 400 272 0
SYMBOL voltage 48 112 R0
WINDOW 123 0 0 Left 0
WINDOW 39 24 124 Left 2
SYMATTR SpiceLine Rser=0
SYMATTR InstName V1
SYMATTR Value 5
SYMBOL res 256 64 R90
WINDOW 0 0 56 VBottom 2
WINDOW 3 32 56 VTop 2
SYMATTR InstName R1
SYMATTR Value 68k
SYMBOL cap 256 144 R0
SYMATTR InstName C1
SYMATTR Value 2200µ
SYMBOL res 704 128 R0
SYMATTR InstName R3
SYMATTR Value 1k
SYMBOL pmos 672 80 M180
SYMATTR InstName M1
SYMATTR Value Si4463DY
SYMBOL npn 448 32 R0
SYMATTR InstName Q1
SYMATTR Value BC547B
SYMBOL res 496 -112 R0
SYMATTR InstName R5
SYMATTR Value 68k
SYMBOL res 384 112 R0
SYMATTR InstName R6
SYMATTR Value 10k
TEXT 96 -80 Left 2 !.tran 40 startup
